<?xml version="1.0" encoding="UTF-8"?>

<!-- generated on 2025-09-19T16:47:17.970631+03:30 by Eclipse SUMO netedit UNKNOWN
<neteditConfiguration xmlns:xsi="http://www.w3.org/2001/XMLSchema-instance" xsi:noNamespaceSchemaLocation="http://sumo.dlr.de/xsd/neteditConfiguration.xsd">

    <input>
        <route-files value="/home/kk_gorbee/Documents/project/ML/CollaborativeTrafficSignal/1way/1way.rou.xml"/>
        <sumo-net-file value="/home/kk_gorbee/Documents/project/ML/CollaborativeTrafficSignal/1way/1way.net.xml"/>
    </input>

    <output>
        <output-file value="/home/kk_gorbee/Documents/project/ML/CollaborativeTrafficSignal/1way/1way.net.xml"/>
    </output>

    <processing>
        <geometry.min-radius.fix.railways value="false"/>
        <geometry.avoid-overlap value="false"/>
        <geometry.max-grade.fix value="false"/>
        <offset.disable-normalization value="true"/>
        <lefthand value="0"/>
    </processing>

    <junctions>
        <no-turnarounds value="true"/>
        <junctions.corner-detail value="5"/>
        <junctions.limit-turn-speed value="5.50"/>
        <rectangular-lane-cut value="0"/>
    </junctions>

    <pedestrian>
        <walkingareas value="0"/>
    </pedestrian>

</neteditConfiguration>
-->

<net version="1.20" junctionCornerDetail="5" limitTurnSpeed="5.50" avoidOverlap="0" xmlns:xsi="http://www.w3.org/2001/XMLSchema-instance" xsi:noNamespaceSchemaLocation="http://sumo.dlr.de/xsd/net_file.xsd">

    <location netOffset="0.00,0.00" convBoundary="-100.00,0.00,100.00,0.00" origBoundary="-10000000000.00,-10000000000.00,10000000000.00,10000000000.00" projParameter="!"/>

    <edge id=":J2_0" function="internal">
        <lane id=":J2_0_0" index="0" speed="13.89" length="0.10" shape="0.00,-1.60 0.00,-1.60"/>
    </edge>

    <edge id="E0" from="J1" to="J2" priority="-1">
        <lane id="E0_0" index="0" speed="13.89" length="100.00" shape="-100.00,-1.60 0.00,-1.60"/>
    </edge>
    <edge id="E1" from="J2" to="J3" priority="-1">
        <lane id="E1_0" index="0" speed="13.89" length="100.00" shape="0.00,-1.60 100.00,-1.60"/>
    </edge>

    <tlLogic id="J2" type="static" programID="0" offset="0">
        <phase duration="82" state="G"/>
        <phase duration="3"  state="y"/>
        <phase duration="5"  state="r"/>
    </tlLogic>

    <junction id="J1" type="dead_end" x="-100.00" y="0.00" incLanes="" intLanes="" shape="-100.00,0.00 -100.00,-3.20"/>
    <junction id="J2" type="traffic_light" x="0.00" y="0.00" incLanes="E0_0" intLanes=":J2_0_0" shape="0.00,0.00 0.00,-3.20 0.00,0.00">
        <request index="0" response="0" foes="0" cont="0"/>
    </junction>
    <junction id="J3" type="dead_end" x="100.00" y="0.00" incLanes="E1_0" intLanes="" shape="100.00,-3.20 100.00,0.00"/>

    <connection from="E0" to="E1" fromLane="0" toLane="0" via=":J2_0_0" tl="J2" linkIndex="0" dir="s" state="O"/>

    <connection from=":J2_0" to="E1" fromLane="0" toLane="0" dir="s" state="M"/>

</net>
