<?xml version="1.0" encoding="UTF-8"?>

<!-- generated on 2025-09-19 16:47:29.643437 by Eclipse SUMO randomTrips.py v1_24_0+0847-9edee8d0c56
<configuration>
    <net-file value="1way.net.xml"/>
    <route-file value="1way.rou.xml"/>
    <end value="100.0"/>
    <period value="10.0"/>
</configuration>
-->

<!-- generated on 2025-09-19T16:47:29.640365+03:30 by Eclipse SUMO duarouter UNKNOWN
<duarouterConfiguration xmlns:xsi="http://www.w3.org/2001/XMLSchema-instance" xsi:noNamespaceSchemaLocation="http://sumo.dlr.de/xsd/duarouterConfiguration.xsd">

    <input>
        <net-file value="1way.net.xml"/>
        <route-files value="trips.trips.xml"/>
    </input>

    <output>
        <output-file value="1way.rou.xml"/>
        <alternatives-output value="NUL"/>
    </output>

    <time>
        <begin value="0"/>
        <end value="100.0"/>
    </time>

    <report>
        <no-warnings value="true"/>
        <ignore-errors value="true"/>
        <no-step-log value="true"/>
    </report>

</duarouterConfiguration>
-->

<routes xmlns:xsi="http://www.w3.org/2001/XMLSchema-instance" xsi:noNamespaceSchemaLocation="http://sumo.dlr.de/xsd/routes_file.xsd">
    <vehicle id="0" depart="0.00">
        <route edges="E0 E1"/>
    </vehicle>
    <vehicle id="1" depart="10.00">
        <route edges="E0 E1"/>
    </vehicle>
    <vehicle id="2" depart="20.00">
        <route edges="E0 E1"/>
    </vehicle>
    <vehicle id="3" depart="30.00">
        <route edges="E0 E1"/>
    </vehicle>
    <vehicle id="4" depart="40.00">
        <route edges="E0 E1"/>
    </vehicle>
    <vehicle id="5" depart="50.00">
        <route edges="E0 E1"/>
    </vehicle>
    <vehicle id="6" depart="60.00">
        <route edges="E0 E1"/>
    </vehicle>
    <vehicle id="7" depart="70.00">
        <route edges="E0 E1"/>
    </vehicle>
    <vehicle id="8" depart="80.00">
        <route edges="E0 E1"/>
    </vehicle>
    <vehicle id="9" depart="90.00">
        <route edges="E0 E1"/>
    </vehicle>
</routes>
