<?xml version="1.0" encoding="UTF-8"?>
<routes>
    <vType id="vtypeauto" accel="2.6" decel="4.5" sigma="0.5" length="4" minGap="4" maxSpeed="27.78" tau="5.0" vClass="passenger" carFollowModel="CACC"/>
    <route id="route_0" edges="end1_junction junction_end4"/>
    <route id="route_1" edges="end1_junction junction_end3"/>
    <route id="route_2" edges="end1_junction junction_end2"/>
    <route id="route_3" edges="end2_junction junction_end1"/>
    <route id="route_4" edges="end2_junction junction_end4"/>
    <route id="route_5" edges="end2_junction junction_end3"/>
    <route id="route_6" edges="end3_junction junction_end2"/>
    <route id="route_7" edges="end3_junction junction_end1"/>
    <route id="route_8" edges="end3_junction junction_end4"/>
    <route id="route_9" edges="end4_junction junction_end3"/>
    <route id="route_10" edges="end4_junction junction_end2"/>
    <route id="route_11" edges="end4_junction junction_end1"/>
</routes>
