<?xml version="1.0" encoding="UTF-8"?>

<!-- generated on 2025-09-15 22:35:48 by Eclipse SUMO netedit Version v1_24_0+0078-dbeacafec2b
<neteditConfiguration xmlns:xsi="http://www.w3.org/2001/XMLSchema-instance" xsi:noNamespaceSchemaLocation="http://sumo.dlr.de/xsd/neteditConfiguration.xsd">

    <input>
        <sumo-net-file value="/home/kk_gorbee/Documents/project/ML/CollaborativeTrafficSignal/V3/my_4way.net.xml"/>
    </input>

    <output>
        <output-file value="/home/kk_gorbee/Documents/project/ML/CollaborativeTrafficSignal/V3/my_4way.net.xml"/>
    </output>

    <processing>
        <offset.disable-normalization value="true"/>
    </processing>

    <junctions>
        <no-turnarounds value="true"/>
    </junctions>

    <netedit>
        <new-network value="false"/>
    </netedit>

</neteditConfiguration>
-->

<net version="1.20" junctionCornerDetail="5" limitTurnSpeed="5.50" xmlns:xsi="http://www.w3.org/2001/XMLSchema-instance" xsi:noNamespaceSchemaLocation="http://sumo.dlr.de/xsd/net_file.xsd">

    <location netOffset="0.00,0.00" convBoundary="0.00,0.00,200.00,200.00" origBoundary="10000000000.00,10000000000.00,-10000000000.00,-10000000000.00" projParameter="!"/>

    <edge id=":J1_0" function="internal">
        <lane id=":J1_0_0" index="0" allow="private emergency passenger taxi bus coach delivery truck trailer evehicle" speed="6.51" length="9.03" shape="92.00,113.60 91.65,111.15 90.60,109.40 88.85,108.35 86.40,108.00"/>
    </edge>
    <edge id=":J1_1" function="internal">
        <lane id=":J1_1_0" index="0" allow="private emergency passenger taxi bus coach delivery truck trailer evehicle" speed="13.89" length="27.20" shape="95.20,113.60 95.20,86.40"/>
    </edge>
    <edge id=":J1_2" function="internal">
        <lane id=":J1_2_0" index="0" allow="private emergency passenger taxi bus coach delivery truck trailer evehicle" speed="10.36" length="12.07" shape="98.40,113.60 99.35,106.95 102.10,102.36"/>
    </edge>
    <edge id=":J1_12" function="internal">
        <lane id=":J1_12_0" index="0" allow="private emergency passenger taxi bus coach delivery truck trailer evehicle" speed="10.36" length="12.44" shape="102.10,102.36 102.20,102.20 106.95,99.35 113.60,98.40"/>
    </edge>
    <edge id=":J1_3" function="internal">
        <lane id=":J1_3_0" index="0" allow="private emergency passenger taxi bus coach delivery truck trailer evehicle" speed="6.51" length="9.03" shape="113.60,108.00 111.15,108.35 109.40,109.40 108.35,111.15 108.00,113.60"/>
    </edge>
    <edge id=":J1_4" function="internal">
        <lane id=":J1_4_0" index="0" allow="private emergency passenger taxi bus coach delivery truck trailer evehicle" speed="13.89" length="27.20" shape="113.60,104.80 86.40,104.80"/>
    </edge>
    <edge id=":J1_5" function="internal">
        <lane id=":J1_5_0" index="0" allow="private emergency passenger taxi bus coach delivery truck trailer evehicle" speed="10.36" length="12.07" shape="113.60,101.60 106.95,100.65 102.36,97.90"/>
    </edge>
    <edge id=":J1_13" function="internal">
        <lane id=":J1_13_0" index="0" allow="private emergency passenger taxi bus coach delivery truck trailer evehicle" speed="10.36" length="12.44" shape="102.36,97.90 102.20,97.80 99.35,93.05 98.40,86.40"/>
    </edge>
    <edge id=":J1_6" function="internal">
        <lane id=":J1_6_0" index="0" allow="private emergency passenger taxi bus coach delivery truck trailer evehicle" speed="6.51" length="9.03" shape="108.00,86.40 108.35,88.85 109.40,90.60 111.15,91.65 113.60,92.00"/>
    </edge>
    <edge id=":J1_7" function="internal">
        <lane id=":J1_7_0" index="0" allow="private emergency passenger taxi bus coach delivery truck trailer evehicle" speed="13.89" length="27.20" shape="104.80,86.40 104.80,113.60"/>
    </edge>
    <edge id=":J1_8" function="internal">
        <lane id=":J1_8_0" index="0" allow="private emergency passenger taxi bus coach delivery truck trailer evehicle" speed="10.36" length="12.07" shape="101.60,86.40 100.65,93.05 97.90,97.64"/>
    </edge>
    <edge id=":J1_14" function="internal">
        <lane id=":J1_14_0" index="0" allow="private emergency passenger taxi bus coach delivery truck trailer evehicle" speed="10.36" length="12.44" shape="97.90,97.64 97.80,97.80 93.05,100.65 86.40,101.60"/>
    </edge>
    <edge id=":J1_9" function="internal">
        <lane id=":J1_9_0" index="0" allow="private emergency passenger taxi bus coach delivery truck trailer evehicle" speed="6.51" length="9.03" shape="86.40,92.00 88.85,91.65 90.60,90.60 91.65,88.85 92.00,86.40"/>
    </edge>
    <edge id=":J1_10" function="internal">
        <lane id=":J1_10_0" index="0" allow="private emergency passenger taxi bus coach delivery truck trailer evehicle" speed="13.89" length="27.20" shape="86.40,95.20 113.60,95.20"/>
    </edge>
    <edge id=":J1_11" function="internal">
        <lane id=":J1_11_0" index="0" allow="private emergency passenger taxi bus coach delivery truck trailer evehicle" speed="10.36" length="12.07" shape="86.40,98.40 93.05,99.35 97.64,102.10"/>
    </edge>
    <edge id=":J1_15" function="internal">
        <lane id=":J1_15_0" index="0" allow="private emergency passenger taxi bus coach delivery truck trailer evehicle" speed="10.36" length="12.44" shape="97.64,102.10 97.80,102.20 100.65,106.95 101.60,113.60"/>
    </edge>

    <edge id="-E0" from="J1" to="J0" priority="-1">
        <lane id="-E0_0" index="0" allow="private emergency passenger taxi bus coach delivery truck trailer evehicle" speed="13.89" length="86.40" shape="86.40,108.00 0.00,108.00"/>
        <lane id="-E0_1" index="1" allow="private emergency passenger taxi bus coach delivery truck trailer evehicle" speed="13.89" length="86.40" shape="86.40,104.80 0.00,104.80"/>
        <lane id="-E0_2" index="2" allow="private emergency passenger taxi bus coach delivery truck trailer evehicle" speed="13.89" length="86.40" shape="86.40,101.60 0.00,101.60"/>
    </edge>
    <edge id="-E1" from="J1" to="J2" priority="-1">
        <lane id="-E1_0" index="0" allow="private emergency passenger taxi bus coach delivery truck trailer evehicle" speed="13.89" length="86.40" shape="108.00,113.60 108.00,200.00"/>
        <lane id="-E1_1" index="1" allow="private emergency passenger taxi bus coach delivery truck trailer evehicle" speed="13.89" length="86.40" shape="104.80,113.60 104.80,200.00"/>
        <lane id="-E1_2" index="2" allow="private emergency passenger taxi bus coach delivery truck trailer evehicle" speed="13.89" length="86.40" shape="101.60,113.60 101.60,200.00"/>
    </edge>
    <edge id="-E2" from="J1" to="J3" priority="-1">
        <lane id="-E2_0" index="0" allow="private emergency passenger taxi bus coach delivery truck trailer evehicle" speed="13.89" length="86.40" shape="113.60,92.00 200.00,92.00"/>
        <lane id="-E2_1" index="1" allow="private emergency passenger taxi bus coach delivery truck trailer evehicle" speed="13.89" length="86.40" shape="113.60,95.20 200.00,95.20"/>
        <lane id="-E2_2" index="2" allow="private emergency passenger taxi bus coach delivery truck trailer evehicle" speed="13.89" length="86.40" shape="113.60,98.40 200.00,98.40"/>
    </edge>
    <edge id="-E3" from="J1" to="J4" priority="-1">
        <lane id="-E3_0" index="0" allow="private emergency passenger taxi bus coach delivery truck trailer evehicle" speed="13.89" length="86.40" shape="92.00,86.40 92.00,0.00"/>
        <lane id="-E3_1" index="1" allow="private emergency passenger taxi bus coach delivery truck trailer evehicle" speed="13.89" length="86.40" shape="95.20,86.40 95.20,0.00"/>
        <lane id="-E3_2" index="2" allow="private emergency passenger taxi bus coach delivery truck trailer evehicle" speed="13.89" length="86.40" shape="98.40,86.40 98.40,0.00"/>
    </edge>
    <edge id="E0" from="J0" to="J1" priority="-1">
        <lane id="E0_0" index="0" allow="private emergency passenger taxi bus coach delivery truck trailer evehicle" speed="13.89" length="86.40" shape="0.00,92.00 86.40,92.00"/>
        <lane id="E0_1" index="1" allow="private emergency passenger taxi bus coach delivery truck trailer evehicle" speed="13.89" length="86.40" shape="0.00,95.20 86.40,95.20"/>
        <lane id="E0_2" index="2" allow="private emergency passenger taxi bus coach delivery truck trailer evehicle" speed="13.89" length="86.40" shape="0.00,98.40 86.40,98.40"/>
    </edge>
    <edge id="E1" from="J2" to="J1" priority="-1">
        <lane id="E1_0" index="0" allow="private emergency passenger taxi bus coach delivery truck trailer evehicle" speed="13.89" length="86.40" shape="92.00,200.00 92.00,113.60"/>
        <lane id="E1_1" index="1" allow="private emergency passenger taxi bus coach delivery truck trailer evehicle" speed="13.89" length="86.40" shape="95.20,200.00 95.20,113.60"/>
        <lane id="E1_2" index="2" allow="private emergency passenger taxi bus coach delivery truck trailer evehicle" speed="13.89" length="86.40" shape="98.40,200.00 98.40,113.60"/>
    </edge>
    <edge id="E2" from="J3" to="J1" priority="-1">
        <lane id="E2_0" index="0" allow="private emergency passenger taxi bus coach delivery truck trailer evehicle" speed="13.89" length="86.40" shape="200.00,108.00 113.60,108.00"/>
        <lane id="E2_1" index="1" allow="private emergency passenger taxi bus coach delivery truck trailer evehicle" speed="13.89" length="86.40" shape="200.00,104.80 113.60,104.80"/>
        <lane id="E2_2" index="2" allow="private emergency passenger taxi bus coach delivery truck trailer evehicle" speed="13.89" length="86.40" shape="200.00,101.60 113.60,101.60"/>
    </edge>
    <edge id="E3" from="J4" to="J1" priority="-1">
        <lane id="E3_0" index="0" allow="private emergency passenger taxi bus coach delivery truck trailer evehicle" speed="13.89" length="86.40" shape="108.00,0.00 108.00,86.40"/>
        <lane id="E3_1" index="1" allow="private emergency passenger taxi bus coach delivery truck trailer evehicle" speed="13.89" length="86.40" shape="104.80,0.00 104.80,86.40"/>
        <lane id="E3_2" index="2" allow="private emergency passenger taxi bus coach delivery truck trailer evehicle" speed="13.89" length="86.40" shape="101.60,0.00 101.60,86.40"/>
    </edge>

    <tlLogic id="J1" type="static" programID="0" offset="0">
        <phase duration="33" state="GGgGrrGGgGrr"/>
        <phase duration="3"  state="yygyrryygyrr"/>
        <phase duration="6"  state="rrGrrrrrGrrr"/>
        <phase duration="3"  state="rryrrrrryrrr"/>
        <phase duration="33" state="GrrGGgGrrGGg"/>
        <phase duration="3"  state="yrryygyrryyg"/>
        <phase duration="6"  state="rrrrrGrrrrrG"/>
        <phase duration="3"  state="rrrrryrrrrry"/>
    </tlLogic>

    <junction id="J0" type="dead_end" x="0.00" y="100.00" incLanes="-E0_0 -E0_1 -E0_2" intLanes="" shape="0.00,100.00 0.00,109.60 0.00,100.00"/>
    <junction id="J1" type="traffic_light" x="100.00" y="100.00" incLanes="E1_0 E1_1 E1_2 E2_0 E2_1 E2_2 E3_0 E3_1 E3_2 E0_0 E0_1 E0_2" intLanes=":J1_0_0 :J1_1_0 :J1_12_0 :J1_3_0 :J1_4_0 :J1_13_0 :J1_6_0 :J1_7_0 :J1_14_0 :J1_9_0 :J1_10_0 :J1_15_0" shape="90.40,113.60 109.60,113.60 110.04,111.38 110.60,110.60 111.38,110.04 112.38,109.71 113.60,109.60 113.60,90.40 111.38,89.96 110.60,89.40 110.04,88.62 109.71,87.62 109.60,86.40 90.40,86.40 89.96,88.62 89.40,89.40 88.62,89.96 87.62,90.29 86.40,90.40 86.40,109.60 88.62,110.04 89.40,110.60 89.96,111.38 90.29,112.38">
        <request index="0"  response="000000000000" foes="000000000000" cont="0"/>
        <request index="1"  response="100000000000" foes="110100010000" cont="0"/>
        <request index="2"  response="100010100000" foes="100010110000" cont="1"/>
        <request index="3"  response="000000000000" foes="000000000000" cont="0"/>
        <request index="4"  response="000010000110" foes="100010000110" cont="0"/>
        <request index="5"  response="010110000100" foes="010110000100" cont="1"/>
        <request index="6"  response="000000000000" foes="000000000000" cont="0"/>
        <request index="7"  response="000000100000" foes="010000110100" cont="0"/>
        <request index="8"  response="100000100010" foes="110000100010" cont="1"/>
        <request index="9"  response="000000000000" foes="000000000000" cont="0"/>
        <request index="10" response="000110000010" foes="000110100010" cont="0"/>
        <request index="11" response="000100010110" foes="000100010110" cont="1"/>
    </junction>
    <junction id="J2" type="dead_end" x="100.00" y="200.00" incLanes="-E1_0 -E1_1 -E1_2" intLanes="" shape="100.00,200.00 109.60,200.00 100.00,200.00"/>
    <junction id="J3" type="dead_end" x="200.00" y="100.00" incLanes="-E2_0 -E2_1 -E2_2" intLanes="" shape="200.00,100.00 200.00,90.40 200.00,100.00"/>
    <junction id="J4" type="dead_end" x="100.00" y="0.00" incLanes="-E3_0 -E3_1 -E3_2" intLanes="" shape="100.00,0.00 90.40,0.00 100.00,0.00"/>

    <junction id=":J1_12_0" type="internal" x="102.10" y="102.36" incLanes=":J1_2_0 E3_1" intLanes=":J1_4_0 :J1_5_0 :J1_7_0 :J1_11_0"/>
    <junction id=":J1_13_0" type="internal" x="102.36" y="97.90" incLanes=":J1_5_0 E0_1" intLanes=":J1_2_0 :J1_7_0 :J1_8_0 :J1_10_0"/>
    <junction id=":J1_14_0" type="internal" x="97.90" y="97.64" incLanes=":J1_8_0 E1_1" intLanes=":J1_1_0 :J1_5_0 :J1_10_0 :J1_11_0"/>
    <junction id=":J1_15_0" type="internal" x="97.64" y="102.10" incLanes=":J1_11_0 E2_1" intLanes=":J1_1_0 :J1_2_0 :J1_4_0 :J1_8_0"/>

    <connection from="E0" to="-E3" fromLane="0" toLane="0" via=":J1_9_0" tl="J1" linkIndex="9" dir="r" state="O"/>
    <connection from="E0" to="-E2" fromLane="1" toLane="1" via=":J1_10_0" tl="J1" linkIndex="10" dir="s" state="o"/>
    <connection from="E0" to="-E1" fromLane="2" toLane="2" via=":J1_11_0" tl="J1" linkIndex="11" dir="l" state="o"/>
    <connection from="E1" to="-E0" fromLane="0" toLane="0" via=":J1_0_0" tl="J1" linkIndex="0" dir="r" state="O"/>
    <connection from="E1" to="-E3" fromLane="1" toLane="1" via=":J1_1_0" tl="J1" linkIndex="1" dir="s" state="O"/>
    <connection from="E1" to="-E2" fromLane="2" toLane="2" via=":J1_2_0" tl="J1" linkIndex="2" dir="l" state="o"/>
    <connection from="E2" to="-E1" fromLane="0" toLane="0" via=":J1_3_0" tl="J1" linkIndex="3" dir="r" state="O"/>
    <connection from="E2" to="-E0" fromLane="1" toLane="1" via=":J1_4_0" tl="J1" linkIndex="4" dir="s" state="o"/>
    <connection from="E2" to="-E3" fromLane="2" toLane="2" via=":J1_5_0" tl="J1" linkIndex="5" dir="l" state="o"/>
    <connection from="E3" to="-E2" fromLane="0" toLane="0" via=":J1_6_0" tl="J1" linkIndex="6" dir="r" state="O"/>
    <connection from="E3" to="-E1" fromLane="1" toLane="1" via=":J1_7_0" tl="J1" linkIndex="7" dir="s" state="O"/>
    <connection from="E3" to="-E0" fromLane="2" toLane="2" via=":J1_8_0" tl="J1" linkIndex="8" dir="l" state="o"/>

    <connection from=":J1_0" to="-E0" fromLane="0" toLane="0" dir="r" state="M"/>
    <connection from=":J1_1" to="-E3" fromLane="0" toLane="1" dir="s" state="M"/>
    <connection from=":J1_2" to="-E2" fromLane="0" toLane="2" via=":J1_12_0" dir="l" state="m"/>
    <connection from=":J1_12" to="-E2" fromLane="0" toLane="2" dir="l" state="M"/>
    <connection from=":J1_3" to="-E1" fromLane="0" toLane="0" dir="r" state="M"/>
    <connection from=":J1_4" to="-E0" fromLane="0" toLane="1" dir="s" state="M"/>
    <connection from=":J1_5" to="-E3" fromLane="0" toLane="2" via=":J1_13_0" dir="l" state="m"/>
    <connection from=":J1_13" to="-E3" fromLane="0" toLane="2" dir="l" state="M"/>
    <connection from=":J1_6" to="-E2" fromLane="0" toLane="0" dir="r" state="M"/>
    <connection from=":J1_7" to="-E1" fromLane="0" toLane="1" dir="s" state="M"/>
    <connection from=":J1_8" to="-E0" fromLane="0" toLane="2" via=":J1_14_0" dir="l" state="m"/>
    <connection from=":J1_14" to="-E0" fromLane="0" toLane="2" dir="l" state="M"/>
    <connection from=":J1_9" to="-E3" fromLane="0" toLane="0" dir="r" state="M"/>
    <connection from=":J1_10" to="-E2" fromLane="0" toLane="1" dir="s" state="M"/>
    <connection from=":J1_11" to="-E1" fromLane="0" toLane="2" via=":J1_15_0" dir="l" state="m"/>
    <connection from=":J1_15" to="-E1" fromLane="0" toLane="2" dir="l" state="M"/>

</net>
